Circuit: * C:\Users\jorda\Documents\LTspiceXVII\sim1.asc

Limiting rise time of source v to 0.0001
Limiting fall time of source v to 0.0001
Instance "m:m1:1": Width narrower than recommended for a level 3 MOSFET.
Direct Newton iteration for .op point succeeded.
.step q=0 t=0.001
.step q=0.25 t=0.001
.step q=0.5 t=0.001
.step q=0.75 t=0.001
.step q=1 t=0.001
.step q=0 t=0.0006667
.step q=0.25 t=0.0006667
.step q=0.5 t=0.0006667
.step q=0.75 t=0.0006667
.step q=1 t=0.0006667


Measurement: r_load_p_avg
  step	AVG(v(4,2)*i(r_load))	FROM	TO
     1	0.0554018	0	1
     2	0.157299	0	1
     3	0.314568	0	1
     4	0.444145	0	1
     5	0.573697	0	1
     6	0.0554253	0	1
     7	0.157321	0	1
     8	0.314592	0	1
     9	0.444185	0	1
    10	0.573697	0	1

Measurement: mosfet_p_avg
  step	AVG(v(2)*ix(m1:d)+v(1)*ix(m1:g))	FROM	TO
     1	0.00203041	0	1
     2	0.000787749	0	1
     3	0.00157848	0	1
     4	0.00135534	0	1
     5	0.00115046	0	1
     6	0.00203699	0	1
     7	0.000778862	0	1
     8	0.00154634	0	1
     9	0.00135629	0	1
    10	0.00115046	0	1

Measurement: trise
  step	trise	FROM	TO
     1	7.01965e-006	0.500147	0.500154
     2	1.53695e-006	0.500287	0.500288
     3	3.35629e-006	0.500574	0.500577
     4	1.55122e-006	0.500787	0.500789
     5	0	0	0
     6	4.50939e-006	0.500123	0.500128
     7	9.77367e-007	0.500216	0.500217
     8	2.10997e-006	0.500408	0.50041
     9	9.71189e-007	0.50055	0.500551
    10	0	0	0

Measurement: tfall
  step	tfall	FROM	TO
     1	7.22174e-006	0.500046	0.500053
     2	1.94992e-006	0.500011	0.500013
     3	3.95536e-006	0.500023	0.500027
     4	1.91705e-006	0.500012	0.500013
     5	0	0	0
     6	5.21219e-006	0.500055	0.500061
     7	1.41577e-006	0.500033	0.500034
     8	2.54008e-006	0.50004	0.500043
     9	1.27831e-006	0.500033	0.500034
    10	0	0	0


Date: Mon May 11 10:56:29 2020
Total elapsed time: 79.895 seconds.

tnom = 27
temp = 27
method = modified trap
totiter = 206210
traniter = 206196
tranpoints = 87374
accept = 60779
rejected = 26595
matrix size = 16
fillins = 5
solver = Normal
Matrix Compiler1: 970 bytes object code size  1.1/0.6/[0.5]
Matrix Compiler2: off  [0.5]/0.7/0.5

